Hello World. Testing!
New Line.
New Line.
New Line.